  74
# Step 1, RM=C5H14NO[357] (21 atoms), C5H14NO[108] d=576.783pm (21 atoms), C2H3O2[127] d=471.603pm (7 atoms), C2H3O2[406] d=507.950pm (7 atoms), H2O[402] d=415.666pm (3 atoms), H2O[52] d=442.028pm (3 atoms), H2O[585] d=444.890pm (3 atoms), H2O[1078] d=488.085pm (3 atoms), H2O[922] d=503.698pm (3 atoms), H2O[960] d=646.051pm (3 atoms)
  C  -0.41724   0.55947  -0.82336
  C  -1.09114  -0.72433  -1.27746
  C  -0.56754  -0.04603   1.47244
  C   1.60726  -0.07013   0.37694
  C   0.61546   1.88547   0.93934
  H  -1.09304   1.41427  -0.84876
  H   0.27226   0.86237  -1.61136
  H  -0.97364  -2.63833  -1.18276
  H  -1.39044  -0.64013  -2.32216
  H  -2.05754  -0.68003  -0.77536
  H  -1.57904   0.35787   1.51534
  H   1.55866  -1.09123  -0.00136
  H  -0.11274   0.18467   2.43584
  H   2.06616  -0.13053   1.36374
  H  -0.59354  -1.13553   1.45464
  H  -0.24124   2.44327   1.31744
  H   1.43756   1.95037   1.65204
  H   0.86246   2.51607   0.08524
  H   2.25876   0.51577  -0.27136
  N   0.30216   0.50187   0.46394
  O  -0.40084  -1.89133  -1.09966
  C   5.15526   1.39017  -3.08206
  C   3.64306   1.20937  -3.20586
  C   5.46266   3.12807  -1.27356
  C   7.28676   1.80147  -2.10396
  C   5.59986   0.72637  -0.76086
  H   5.42136   2.06317  -3.89716
  H   5.59996   0.51617  -3.55786
  H   1.92856   2.16957  -2.90156
  H   3.33166   0.28147  -2.72626
  H   3.27236   1.21287  -4.23086
  H   7.85876   2.19577  -1.26406
  H   5.93946  -0.18883  -1.24586
  H   4.53376   0.74307  -0.53476
  H   7.40776   2.44497  -2.97536
  H   4.44756   2.99657  -0.89886
  H   6.16596   0.83107   0.16464
  H   7.64106   0.80097  -2.35216
  H   6.01496   3.37757  -0.36756
  H   5.56326   3.84067  -2.09226
  N   5.84936   1.75597  -1.78936
  O   2.79706   2.21607  -2.53216
  C  -0.57324   2.58447  -3.90196
  C  -1.58184   2.06447  -4.86606
  H  -1.55824   2.41567  -5.89766
  H  -2.58154   2.21787  -4.45976
  H  -1.51364   0.98117  -4.96596
  O   0.53696   2.01247  -3.81976
  O  -0.82774   3.54217  -3.10486
  C  -2.98324  -3.72643  -1.76046
  C  -3.75274  -3.31383  -0.51216
  H  -3.11884  -3.28583   0.37414
  H  -4.10944  -2.28883  -0.61286
  H  -4.51294  -3.98703  -0.11586
  O  -1.80384  -4.04723  -1.67946
  O  -3.63344  -3.70473  -2.84986
  H  -0.88174   3.87267  -1.37586
  H  -2.13894   3.56997  -0.80576
  O  -1.29714   3.92067  -0.51486
  H  -4.05154   0.01807   0.99184
  H  -5.03404   1.12947   0.84044
  O  -4.32104   0.69567   0.37184
  H   0.21506  -1.38733   4.64464
  H   0.73646  -2.67883   4.42674
  O   0.38696  -1.96133   3.89814
  H  -4.28034   3.66497  -0.60616
  H  -3.96334   2.23637  -0.49986
  O  -3.67904   3.01757  -0.97436
  H  -0.97454  -2.70663   3.51274
  H  -2.00604  -2.99363   4.47734
  O  -1.86544  -3.05603   3.53254
  H  -2.55294  -3.60983  -4.02896
  H  -2.95094  -3.99853  -5.36836
  O  -2.31714  -3.42473  -4.93796
