  74
# Step 1, RM=C5H14NO[154] (21 atoms), C5H14NO[393] d=547.221pm (21 atoms), C2H3O2[228] d=391.136pm (7 atoms), C2H3O2[312] d=454.380pm (7 atoms), H2O[519] d=385.740pm (3 atoms), H2O[504] d=424.037pm (3 atoms), H2O[532] d=449.765pm (3 atoms), H2O[784] d=461.152pm (3 atoms), H2O[1120] d=467.120pm (3 atoms), H2O[58] d=551.123pm (3 atoms)
  C  -0.63630   0.81198   0.13477
  C  -1.28980   0.61168  -1.19043
  C   1.64310   0.23688  -0.47573
  C   0.41890  -1.34852   0.58517
  C   1.12490   0.49458   1.83797
  H  -0.36220   1.86668   0.10977
  H  -1.37860   0.68808   0.92327
  H  -2.20391  -0.98322  -0.58503
  H  -0.75480   0.95748  -2.07483
  H  -2.25275   1.09728  -1.03263
  H   1.31130  -0.06302  -1.46973
  H   2.61730  -0.20232  -0.26043
  H   0.37940  -1.78992  -0.41063
  H   1.13500  -1.93182   1.16407
  H  -0.44920  -1.61832   1.18657
  H   1.79640   1.30628  -0.62093
  H   1.30200   1.56898   1.78967
  H   2.11910   0.10518   2.05717
  H   0.35490   0.37148   2.59957
  N   0.60360   0.04398   0.52897
  O  -1.70260  -0.73052  -1.34523
  C  -0.36300  -4.99672  -3.91563
  C   1.00100  -4.30552  -3.66773
  C  -2.57692  -5.70692  -3.15023
  C  -2.18694  -3.39062  -3.88513
  C  -1.35080  -4.25672  -1.77363
  H  -0.56380  -4.96732  -4.98663
  H  -0.19520  -6.03342  -3.62383
  H   1.41140  -2.58882  -2.83113
  H   1.72010  -4.64482  -4.41323
  H   1.42070  -4.69152  -2.73873
  H  -3.55205  -5.40862  -2.76533
  H  -2.51148  -3.56972  -4.91013
  H  -2.74788  -6.09012  -4.15623
  H  -3.12681  -3.15042  -3.38803
  H  -2.29511  -6.58712  -2.57243
  H  -1.53330  -2.52052  -3.82353
  H  -2.22347  -4.03342  -1.15983
  H  -0.80250  -5.06282  -1.28623
  H  -0.67380  -3.41102  -1.65263
  N  -1.62590  -4.60032  -3.13293
  O   1.00490  -2.91102  -3.62113
  C  -3.34253  -1.18792   1.66827
  C  -4.55835  -0.36882   1.21547
  H  -4.46233   0.21168   0.29797
  H  -4.78393   0.34948   2.00367
  H  -5.43846  -1.00352   1.11267
  O  -2.91207  -2.10902   0.86297
  O  -2.74200  -0.79572   2.67527
  C   0.47250   3.28058  -3.00783
  C  -0.71160   4.11848  -3.28203
  H  -0.56700   4.80898  -4.11293
  H  -0.72320   4.70488  -2.36333
  H  -1.60730   3.49748  -3.29823
  O   1.22820   3.10858  -3.99023
  O   0.64410   2.97058  -1.79933
  H   3.23880  -1.64772  -1.78723
  H   3.08130  -2.75362  -0.89733
  O   2.59190  -2.32842  -1.60153
  H  -0.13410   3.90098   1.03117
  H   0.91880   3.90468  -0.02513
  O   0.79140   4.10818   0.90147
  H  -1.41820  -4.36822   1.79417
  H  -1.89060  -3.04722   1.88237
  O  -1.29000  -3.61272   2.36777
  H  -2.03750   0.59968   5.01207
  H  -1.92340   0.29928   3.61277
  O  -1.48140   0.83688   4.26997
  H  -0.29470   2.83958   2.95917
  H  -0.31830   2.19708   4.11907
  O   0.25870   2.86008   3.73987
  H   5.03070  -2.67552  -0.08673
  H   4.89150  -4.01672  -0.32383
  O   4.32730  -3.31782   0.00707
