  74
# Step 2, RM=C5H14NO[423] (21 atoms), C5H14NO[10] d=576.897pm (21 atoms), C2H3O2[425] d=493.003pm (7 atoms), C2H3O2[399] d=527.212pm (7 atoms), H2O[599] d=381.102pm (3 atoms), H2O[208] d=474.526pm (3 atoms), H2O[280] d=476.469pm (3 atoms), H2O[831] d=495.679pm (3 atoms), H2O[1052] d=510.020pm (3 atoms), H2O[1110] d=667.503pm (3 atoms)
  C   0.00879  -1.01051  -0.00335
  C  -1.53981  -1.07591  -0.22245
  C   2.16109  -0.16841  -0.12545
  C   0.61699   1.19369   1.08985
  C   0.53889   1.00219  -1.30705
  H   0.15009  -1.44511   0.98615
  H   0.40819  -1.67211  -0.77195
  H  -2.80151  -0.68231   1.24485
  H  -1.95671  -2.06971  -0.05905
  H  -1.72691  -0.94731  -1.28855
  H   2.48129  -0.79931  -0.95455
  H  -0.40161   1.46829   1.36405
  H   2.47879  -0.76521   0.72955
  H   0.93029   0.73239   2.02635
  H   2.84489   0.67879  -0.17825
  H   1.10859   2.15959   0.97335
  H   0.91139   0.39839  -2.13455
  H   1.12259   1.92249  -1.32805
  H  -0.44741   1.43159  -1.48315
  N   0.76539   0.29559  -0.08245
  O  -2.33221  -0.24041   0.55395
  C  -2.50911   3.99669  -0.69825
  C  -3.90501   3.96959  -1.45785
  C  -1.79641   6.35819  -1.06005
  C  -3.07421   5.80109   0.80595
  C  -0.85351   5.04709   0.71485
  H  -1.71571   3.57389  -1.31455
  H  -2.65701   3.30149   0.12805
  H  -4.83081   4.79979  -2.82555
  H  -4.73451   3.67679  -0.81415
  H  -3.86571   3.17249  -2.20025
  H  -3.98361   5.92759   0.21855
  H  -1.28771   7.16189  -0.52765
  H  -1.23881   6.07259  -1.95195
  H  -2.81071   6.74239   1.28815
  H  -2.65101   6.89539  -1.47145
  H  -0.48931   5.82449   1.38635
  H   0.06509   4.96529   0.13385
  H  -0.86071   4.10429   1.26185
  H  -3.39631   5.06159   1.53915
  N  -2.05531   5.29229  -0.08345
  O  -4.21161   5.09979  -2.17785
  C  -0.60101  -3.07221  -3.81155
  C   0.76369  -2.55701  -4.06815
  H   0.86279  -1.58541  -3.58405
  H   1.29049  -3.31871  -3.49345
  H   1.23979  -2.71131  -5.03645
  O  -1.20661  -2.81121  -2.77655
  O  -1.15381  -3.60381  -4.80145
  C   0.04379  -4.79901   2.28935
  C  -0.31581  -4.82971   0.87265
  H   0.45909  -4.40541   0.23425
  H  -1.24731  -4.28891   0.70555
  H  -0.42461  -5.88291   0.61365
  O   0.24249  -3.64331   2.83515
  O   0.13169  -5.86111   2.87715
  H  -2.01421  -1.74991   2.86395
  H  -0.77321  -2.30871   3.11435
  O  -1.20671  -1.47541   3.29855
  H   3.44979  -0.46991  -3.22965
  H   3.77779   0.51259  -4.16455
  O   3.20669   0.44019  -3.39975
  H  -2.28411   2.65989   4.13855
  H  -1.08381   1.89469   4.13845
  O  -1.45681   2.63379   3.65795
  H   2.26039   1.82109  -3.49755
  H   2.47609   2.88949  -4.41055
  O   1.88769   2.68279  -3.68445
  H   0.81149   5.13809  -2.98115
  H   1.11889   3.80469  -2.86415
  O   0.57829   4.42969  -2.38115
  H  -3.83311   2.31159   6.07005
  H  -3.92331   1.53659   4.87575
  O  -3.43211   2.29099   5.20115
