  74
# Step 5, RM=C5H14NO[324] (21 atoms), C5H14NO[314] d=532.875pm (21 atoms), C2H3O2[45] d=445.593pm (7 atoms), C2H3O2[337] d=502.745pm (7 atoms), H2O[1025] d=376.675pm (3 atoms), H2O[173] d=413.582pm (3 atoms), H2O[471] d=451.032pm (3 atoms), H2O[464] d=458.708pm (3 atoms), H2O[126] d=466.440pm (3 atoms), H2O[278] d=468.584pm (3 atoms)
  C   0.14687  -0.82257   0.52599
  C   0.76407  -1.54127  -0.69651
  C  -0.89943   0.85253   1.75929
  C   0.19507   1.61033  -0.19001
  C  -1.69333   0.38283  -0.39351
  H   0.88917  -0.76407   1.32199
  H  -0.68053  -1.45797   0.84189
  H   1.99377  -1.23807  -2.10321
  H   0.94107  -2.58137  -0.42261
  H   0.10467  -1.61747  -1.56111
  H   0.02977   0.98433   2.31359
  H   1.00807   1.92643   0.46369
  H  -2.28813   1.29273  -0.47321
  H   0.70777   1.32063  -1.10721
  H  -1.56223   0.14063   2.25119
  H  -0.49803   2.42263  -0.40871
  H  -1.32673   1.85523   1.75729
  H  -2.30763  -0.38287   0.08009
  H  -1.45763  -0.00457  -1.38471
  N  -0.53243   0.49263   0.42529
  O   1.86237  -0.91247  -1.22581
  C   4.61387   1.43583  -0.96071
  C   5.04397  -0.04387  -1.10311
  C   5.57717   2.31473  -3.01091
  C   3.87657   3.49673  -1.79421
  C   3.35887   1.45023  -3.03951
  H   3.73557   1.45813  -0.31561
  H   5.38187   1.97543  -0.40661
  H   6.51287  -0.00537   0.04899
  H   4.50537  -0.71127  -0.43031
  H   4.88597  -0.52777  -2.06701
  H   5.35737   2.94983  -3.86901
  H   6.03817   1.36183  -3.27071
  H   2.96397   2.15823  -3.76821
  H   3.79437   0.59033  -3.54841
  H   6.36677   2.67963  -2.35401
  H   4.69277   4.16173  -1.51191
  H   3.15347   3.51503  -0.97871
  H   3.53837   4.05123  -2.66961
  H   2.53317   1.01013  -2.48041
  N   4.33537   2.17953  -2.21251
  O   6.39757  -0.19087  -0.87041
  C  -0.74463  -1.89987   3.97499
  C  -0.76823  -0.90347   5.06049
  H  -0.19843  -1.12087   5.96389
  H  -0.40073   0.00623   4.58559
  H  -1.79433  -0.72727   5.38339
  O   0.36397  -2.16537   3.45439
  O  -1.89533  -2.24307   3.54159
  C  -2.97913  -0.95097  -3.99461
  C  -2.59543  -2.23137  -3.32211
  H  -2.82593  -2.16267  -2.25891
  H  -3.09673  -3.04967  -3.83911
  H  -1.52973  -2.35477  -3.51471
  O  -2.22313   0.02233  -3.78621
  O  -4.04423  -0.93097  -4.63091
  H  -0.58033   1.02263  -3.44601
  H   0.21807   2.25123  -3.22321
  O   0.31807   1.34543  -3.51611
  H  -0.97203  -4.11717   1.33309
  H  -0.09303  -3.22947   2.08929
  O  -0.04273  -3.90037   1.40839
  H   0.20237   4.32193  -1.53931
  H   0.57537   4.50353  -2.90621
  O   0.31647   3.78793  -2.32551
  H   0.50617   3.59033   2.44159
  H   1.94767   2.97153   2.50889
  O   1.20507   3.28953   3.02239
  H   4.90597   0.04813   2.19909
  H   3.86307   1.02063   2.37799
  O   3.96697   0.06913   2.38389
  H   2.07957  -2.25297   3.05129
  H   3.32217  -1.54907   2.65769
  O   2.97227  -2.43447   2.75729
