  74
# Step 8, RM=C5H14NO[3] (21 atoms), C5H14NO[474] d=574.497pm (21 atoms), C2H3O2[185] d=482.029pm (7 atoms), C2H3O2[316] d=482.192pm (7 atoms), H2O[668] d=424.357pm (3 atoms), H2O[905] d=454.286pm (3 atoms), H2O[1019] d=469.531pm (3 atoms), H2O[1009] d=482.623pm (3 atoms), H2O[764] d=489.234pm (3 atoms), H2O[462] d=511.351pm (3 atoms)
  C  -0.04829  -0.73181   0.66831
  C   0.92621  -1.59621  -0.09439
  C   0.23681   1.63089   0.28941
  C  -1.95369   0.83729   0.74651
  C  -0.83179   0.26259  -1.40279
  H  -0.85549  -1.39011   0.98941
  H   0.29611  -0.38571   1.64291
  H   2.56601  -0.78711   0.55721
  H   0.58481  -2.01291  -1.04199
  H   1.07131  -2.41271   0.61301
  H  -0.07709   2.61289  -0.06469
  H   0.11481   0.16359  -1.93399
  H  -1.74269   1.18929   1.75621
  H   1.13671   1.53319  -0.31779
  H  -2.31939   1.67379   0.15101
  H  -2.70089   0.04399   0.72501
  H   0.44911   1.75539   1.35131
  H  -1.28679   1.16479  -1.81169
  H  -1.50409  -0.58411  -1.54149
  N  -0.67889   0.48819   0.05111
  O   2.11741  -0.89131  -0.26789
  C   0.80491   3.06859  -5.63949
  C   0.37651   1.56119  -5.60569
  C   2.01451   5.02749  -5.12379
  C   1.19601   3.64429  -3.30169
  C   3.05221   2.81859  -4.68559
  H   1.08881   3.29079  -6.66819
  H  -0.17599   3.52439  -5.50439
  H  -0.89499   1.56209  -4.17789
  H   1.24601   0.95899  -5.86909
  H  -0.40439   1.32259  -6.32779
  H   2.59411   5.53739  -4.35419
  H   2.58301   5.16509  -6.04349
  H   3.86981   3.15049  -4.04579
  H   3.56921   2.75669  -5.64319
  H   0.21821   4.12599  -3.30489
  H   1.05971   2.64029  -2.89979
  H   1.11581   5.63689  -5.02939
  H   1.85291   4.22649  -2.65539
  H   2.93511   1.80049  -4.31449
  N   1.76461   3.62089  -4.70529
  O  -0.07239   1.12369  -4.33309
  C  -3.98049   0.01539  -2.72069
  C  -3.44059  -0.83281  -3.75629
  H  -3.05899  -1.77111  -3.35379
  H  -4.31179  -1.01491  -4.38549
  H  -2.66069  -0.30631  -4.30639
  O  -4.16619   1.21179  -2.93519
  O  -4.22339  -0.57691  -1.61559
  C   3.56601  -2.06821   2.46411
  C   4.64761  -2.97291   1.87801
  H   4.52741  -4.01421   2.17701
  H   4.37311  -2.95101   0.82341
  H   5.61471  -2.50911   2.07251
  O   2.75401  -2.58721   3.24841
  O   3.45635  -0.91161   1.99931
  H  -3.71899  -1.80831  -0.73799
  H  -3.93029  -2.06551   0.57371
  O  -3.43519  -2.48891  -0.12769
  H   1.12098  -2.79711   3.42811
  H   0.05726  -3.67811   3.02741
  O   0.17033  -2.86381   3.51781
  H   3.52981  -1.85561  -2.32419
  H   3.26316  -1.80711  -1.00229
  O   3.85381  -2.32101  -1.55299
  H   1.12907  -1.63431  -4.13719
  H   0.13608  -0.72081  -4.55239
  O   0.27206  -1.66821  -4.56219
  H  -1.43704  -4.50191  -0.95139
  H  -2.50423  -3.53231  -0.98019
  O  -2.10520  -4.18281  -1.55799
  H  -0.67249   3.89609   3.99351
  H  -1.72059   3.04359   3.43871
  O  -0.96619   2.98559   4.02501
