  74
# Step 2, RM=C5H14NO[38] (21 atoms), C5H14NO[100] d=589.191pm (21 atoms), C2H3O2[380] d=561.703pm (7 atoms), C2H3O2[358] d=562.335pm (7 atoms), H2O[522] d=404.632pm (3 atoms), H2O[990] d=419.497pm (3 atoms), H2O[290] d=439.924pm (3 atoms), H2O[929] d=446.276pm (3 atoms), H2O[1096] d=489.965pm (3 atoms), H2O[679] d=492.087pm (3 atoms)
  C   0.30003  -0.10969  -0.97694
  C   0.57753   1.41551  -0.92914
  C  -1.87277  -0.09399   0.31736
  C  -0.54747  -2.06519  -0.02024
  C   0.24913  -0.40439   1.46586
  H  -0.32977  -0.31979  -1.84134
  H   1.28573  -0.56589  -0.88584
  H   1.81143   2.61291  -0.20124
  H  -0.30847   1.96721  -0.61494
  H   0.78533   1.79541  -1.92944
  H   0.42523  -2.53319   0.13136
  H  -0.90267  -2.51529  -0.94724
  H  -1.18667  -2.60749   0.67656
  H  -1.81557   0.96541   0.56756
  H   1.27663  -0.75799   1.55236
  H   0.29223   0.61411   1.85156
  H  -0.28427  -0.90309   2.27506
  H  -2.40927  -0.14189  -0.63024
  H  -2.54477  -0.56769   1.03286
  N  -0.48177  -0.63829   0.16256
  O   1.63883   1.68931  -0.10024
  C  -0.56437  -1.54055   5.31096
  C   0.18313  -2.65616   4.58206
  C  -2.90197  -2.00502   4.79716
  C  -2.25857  -0.56165   6.54786
  C  -1.95097  -2.94794   6.78066
  H   0.12543  -1.27062   6.11056
  H  -0.61537  -0.65077   4.68346
  H  -1.01807  -3.93285   3.63946
  H   0.31583  -3.57804   5.14826
  H   1.11133  -2.22543   4.20646
  H  -2.12697   0.31000   5.90676
  H  -1.22817  -2.82668   7.58756
  H  -1.68907  -3.93160   6.39086
  H  -1.67517  -0.36570   7.44746
  H  -2.81027  -2.99199   4.34376
  H  -2.91157  -3.06854   7.28136
  H  -3.27607  -0.44673   6.92146
  H  -3.84967  -2.00694   5.33576
  H  -2.90667  -1.37123   3.91036
  N  -1.89127  -1.78413   5.86536
  O  -0.55907  -3.12937   3.44786
  C  -2.98747   2.10000  -4.36494
  C  -2.37457   1.98490  -2.98974
  H  -3.01777   1.34320  -2.38754
  H  -1.42617   1.54450  -3.29754
  H  -2.20557   2.93840  -2.48934
  O  -4.15867   1.91240  -4.58174
  O  -2.22477   2.30800  -5.31554
  C  -4.86567  -2.74589   0.83436
  C  -3.70197  -3.62502   1.25586
  H  -2.98017  -3.11548   1.89426
  H  -4.10297  -4.49216   1.78056
  H  -3.19977  -3.79886   0.30416
  O  -5.08247  -2.45865  -0.35724
  O  -5.62267  -2.25305   1.70966
  H  -2.51187   0.97890   3.48916
  H  -1.50497   2.03410   3.87886
  O  -1.57297   1.16470   3.48416
  H   2.88783  -3.65459   2.00196
  H   2.78113  -2.37651   2.47626
  O   2.43833  -2.85694   1.72276
  H  -3.25917  -3.18959  -2.26194
  H  -3.75517  -2.40119  -1.27134
  O  -3.12537  -2.28389  -1.98264
  H  -1.54377  -2.16295  -3.95514
  H  -2.27877  -1.30117  -3.14674
  O  -1.74387  -1.22706  -3.93704
  H  -1.97587   4.18800   0.63736
  H  -1.91017   5.33670  -0.37264
  O  -1.37937   4.67180   0.06596
  H   1.35903   4.54320  -0.78994
  H   0.19923   4.77210   0.14636
  O   1.15483   4.81010   0.10626
