  74
# Step 1, RM=C5H14NO[487] (21 atoms), C5H14NO[404] d=586.541pm (21 atoms), C2H3O2[214] d=440.163pm (7 atoms), C2H3O2[161] d=471.166pm (7 atoms), H2O[662] d=417.257pm (3 atoms), H2O[634] d=436.946pm (3 atoms), H2O[173] d=492.344pm (3 atoms), H2O[434] d=504.722pm (3 atoms), H2O[338] d=514.715pm (3 atoms), H2O[271] d=517.686pm (3 atoms)
  C   0.28953  -0.71038   0.67434
  C   1.65433  -0.84278  -0.09566
  C  -1.79517   0.34162   1.34634
  C  -1.29607  -0.00088  -0.95556
  C  -0.05377   1.62582   0.38134
  H  -0.18757  -1.67478   0.50004
  H   0.53423  -0.70768   1.73654
  H   2.59343  -0.72638  -1.76676
  H   2.25493   0.02262   0.18484
  H   2.19833  -1.75678   0.14234
  H  -0.59677   0.09592  -1.78606
  H  -1.46067   0.54782   2.36304
  H  -2.56677   1.08972   1.16414
  H  -2.13077   0.63042  -1.25996
  H  -2.31557  -0.61358   1.27624
  H  -0.79527   2.42442   0.40244
  H   0.52923   1.85742  -0.50996
  H   0.60463   1.71622   1.24534
  H  -1.64767  -1.02708  -1.06216
  N  -0.69017   0.30582   0.34114
  O   1.69403  -0.69638  -1.47836
  C   2.13823   0.95532  -4.58196
  C   1.77853   1.80112  -3.29176
  C   3.62973   0.45212  -6.30226
  C   2.80163   2.64252  -6.19826
  C   4.51093   1.86112  -4.70556
  H   1.23753   0.86932  -5.18976
  H   2.37213  -0.03548  -4.19256
  H   1.94683   3.68002  -2.89486
  H   2.59233   1.74792  -2.56846
  H   0.90573   1.35932  -2.81116
  H   2.36483   3.45332  -5.61526
  H   4.96633   1.07592  -4.10216
  H   2.85833   0.05712  -6.96336
  H   4.32353   2.58172  -3.90946
  H   3.66173   3.00352  -6.76216
  H   4.37723   0.74902  -7.03796
  H   5.30283   2.09092  -5.41836
  H   2.16573   2.32522  -7.02486
  H   4.06163  -0.42128  -5.81356
  N   3.23103   1.47032  -5.36576
  O   1.45893   3.19382  -3.54176
  C   0.59243  -3.87568   1.91904
  C  -0.49907  -4.92978   2.00474
  H  -0.13687  -5.88718   2.37924
  H  -1.35927  -4.59988   2.58724
  H  -0.71857  -5.15758   0.96164
  O   0.58513  -2.98938   2.79964
  O   1.44863  -3.87908   1.00764
  C   2.66543   3.93942  -0.52026
  C   3.23663   2.95302   0.43204
  H   3.61363   2.00622   0.04544
  H   3.99473   3.45412   1.03394
  H   2.46363   2.70842   1.16064
  O   3.19573   4.01002  -1.64176
  O   1.59233   4.50982  -0.26826
  H   0.86973   0.62962   3.95374
  H   0.36333   1.98202   3.72874
  O   1.19093   1.50102   3.72204
  H  -0.71317  -1.05408   4.40274
  H   0.44123  -1.67318   3.72374
  O   0.22713  -0.92408   4.27984
  H  -1.99407   2.55072   3.94754
  H  -0.87057   3.33912   4.59294
  O  -1.04377   2.66452   3.93634
  H  -4.83977   0.17982  -0.59446
  H  -4.82527   1.14122   0.52184
  O  -4.92877   1.11852  -0.42956
  H  -3.03637  -1.04048   3.84474
  H  -2.80477   0.21942   4.42714
  O  -2.44397  -0.66448   4.49584
  H  -4.54087  -0.41748   2.67884
  H  -4.20937  -1.47408   1.89904
  O  -4.16547  -1.28388   2.83614
