  74
# Step 5, RM=C5H14NO[286] (21 atoms), C5H14NO[55] d=597.180pm (21 atoms), C2H3O2[409] d=389.632pm (7 atoms), C2H3O2[69] d=444.101pm (7 atoms), H2O[186] d=397.760pm (3 atoms), H2O[980] d=461.121pm (3 atoms), H2O[635] d=474.155pm (3 atoms), H2O[327] d=484.448pm (3 atoms), H2O[1122] d=524.834pm (3 atoms), H2O[829] d=528.054pm (3 atoms)
  C  -1.03372   0.11384   0.02563
  C  -0.99302  -0.06416   1.56313
  C   1.26228   0.82634  -0.43317
  C  -0.15692   0.07874  -2.19957
  C   0.66168  -1.52906  -0.67147
  H  -1.78342  -0.57456  -0.36457
  H  -1.42692   1.11984  -0.12037
  H  -0.06902   1.51364   2.20443
  H  -0.83942  -1.12316   1.77073
  H  -1.95952   0.34544   1.85663
  H  -0.50872   1.10204  -2.33057
  H  -0.26062  -2.10836  -0.71637
  H   1.71188   0.53694   0.51663
  H   1.11328  -1.70766   0.30433
  H  -0.99002  -0.53776  -2.53727
  H   0.90838   1.85124  -0.32207
  H   1.18088  -1.92466  -1.54447
  H   0.72658  -0.04906  -2.82507
  H   2.08228   0.78904  -1.15027
  N   0.23058  -0.11136  -0.78747
  O   0.00028   0.57694   2.30843
  C   3.62818   3.60194   0.70553
  C   4.85358   4.03614  -0.18897
  C   3.56168   5.56574   2.06423
  C   4.53918   3.54014   3.05283
  C   2.13788   3.74944   2.69743
  H   2.81108   3.90194   0.04943
  H   3.68438   2.53104   0.90033
  H   6.68968   4.07384  -0.09197
  H   4.97058   3.25704  -0.94227
  H   4.63358   4.98954  -0.66937
  H   4.44978   6.02034   1.62523
  H   3.46028   6.00984   3.05443
  H   4.29928   3.92644   4.04343
  H   5.52578   3.97604   2.89553
  H   4.60518   2.45484   3.12903
  H   2.75928   6.06504   1.52113
  H   1.34418   4.37124   2.28323
  H   1.82558   2.71664   2.54243
  H   2.09078   3.92094   3.77273
  N   3.49858   4.10194   2.11593
  O   6.02018   3.93884   0.56123
  C  -0.81842   3.81444   0.62813
  C  -2.16442   4.11594  -0.02327
  H  -2.00632   4.64464  -0.96327
  H  -2.80982   4.66674   0.66093
  H  -2.54762   3.17344  -0.41457
  O   0.18098   4.07724  -0.02137
  O  -0.86802   3.01924   1.56623
  C   3.57008  -1.53406   2.14353
  C   3.00328  -0.66676   3.33573
  H   3.12578   0.37324   3.03313
  H   3.49318  -0.91206   4.27803
  H   1.91698  -0.75576   3.33183
  O   3.60758  -0.92376   1.03993
  O   4.11138  -2.65676   2.32183
  H  -2.83272  -3.37826  -0.34247
  H  -2.81932  -2.48316   0.80323
  O  -2.30532  -3.20276   0.43683
  H   0.11828   4.63634  -2.91667
  H   0.35918   3.79274  -1.77387
  O   0.14958   3.70364  -2.70357
  H  -1.03452  -4.14032  -0.30137
  H  -1.22662  -4.53448  -1.69397
  O  -0.58162  -4.62363  -0.99237
  H   4.27028  -0.45606  -0.24997
  H   5.44838  -0.65556  -0.60447
  O   4.71408  -0.26176  -1.07557
  H  -0.28382  -2.95376  -3.86407
  H   0.56618  -3.60196  -4.89867
  O   0.50728  -2.79936  -4.38037
  H   4.24378   0.83614  -2.37847
  H   4.87058   1.76004  -3.19267
  O   3.99518   1.37834  -3.12707
