  74
# Step 7, RM=C5H14NO[290] (21 atoms), C5H14NO[139] d=562.400pm (21 atoms), C2H3O2[11] d=531.822pm (7 atoms), C2H3O2[323] d=539.538pm (7 atoms), H2O[115] d=482.551pm (3 atoms), H2O[581] d=490.646pm (3 atoms), H2O[264] d=523.295pm (3 atoms), H2O[265] d=530.051pm (3 atoms), H2O[670] d=537.047pm (3 atoms), H2O[58] d=578.946pm (3 atoms)
  C   0.54645   0.63162  -0.68086
  C  -0.60855   0.49162  -1.73656
  C   1.43125   0.52032   1.56544
  C   0.47165  -1.38158   0.75814
  C  -0.89815   0.56882   1.26764
  H   1.40205   0.17932  -1.18226
  H   0.79925   1.69192  -0.68936
  H  -0.65955  -1.36018  -2.19846
  H  -0.25025   0.68792  -2.74706
  H  -1.35225   1.26612  -1.54916
  H   1.46285   1.58762   1.78454
  H   1.33325  -1.83198   0.26524
  H   1.29135   0.06312   2.54494
  H   0.42345  -1.73738   1.78734
  H   2.42205   0.15292   1.29834
  H  -0.38735  -1.90188   0.33454
  H  -1.07275   0.12412   2.24734
  H  -0.87765   1.65762   1.31374
  H  -1.77265   0.16792   0.75524
  N   0.35985   0.09482   0.66344
  O  -1.19665  -0.75378  -1.71176
  C   4.39075  -2.32428  -3.47996
  C   3.02505  -2.21348  -4.22796
  C   4.43815  -0.27758  -2.01996
  C   5.37945  -0.25408  -4.22126
  C   6.42905  -1.56778  -2.58146
  H   4.28255  -2.95818  -2.59996
  H   4.98715  -2.89098  -4.19496
  H   1.27745  -1.49428  -3.93266
  H   3.12705  -1.74278  -5.20566
  H   2.70205  -3.22188  -4.48656
  H   5.81015  -0.87018  -5.01056
  H   4.50985   0.30332  -4.56916
  H   6.17125   0.46022  -3.99566
  H   4.12855  -0.90568  -1.18476
  H   7.10125  -2.04498  -3.29446
  H   6.28805  -2.26258  -1.75346
  H   6.97275  -0.71958  -2.16536
  H   5.10025   0.51752  -1.67696
  H   3.51145   0.24292  -2.26126
  N   5.12145  -1.10438  -3.04146
  O   2.02565  -1.65838  -3.37936
  C  -3.89245  -1.67588   3.24294
  C  -4.45175  -0.75128   2.20814
  H  -4.50945   0.24342   2.65024
  H  -3.84515  -0.64018   1.30934
  H  -5.47565  -0.97808   1.91094
  O  -4.26015  -1.38938   4.46024
  O  -3.07215  -2.59918   2.95654
  C   2.98985   3.12352  -3.07156
  C   3.62055   3.47522  -4.48456
  H   4.69685   3.30572  -4.45416
  H   3.45065   4.54232  -4.62776
  H   3.15895   2.97012  -5.33306
  O   1.76125   3.15962  -2.90316
  O   3.74135   2.89032  -2.13426
  H  -0.43005   0.26822   5.44484
  H   0.88375  -0.00358   5.15204
  O   0.03545  -0.21468   4.76194
  H  -1.82915  -3.42898   2.33634
  H  -1.19955  -3.80698   3.28114
  O  -1.18995  -4.13988   2.38374
  H  -0.43245  -1.79738   4.67874
  H  -1.71225  -2.16918   4.34804
  O  -0.87785  -2.62028   4.47664
  H  -4.13565   3.56712   0.01324
  H  -3.84015   4.23232  -1.24686
  O  -3.40225   3.99382  -0.42986
  H   4.42895   2.62352  -0.73656
  H   5.52705   2.92602   0.03234
  O   4.81375   2.28912   0.07354
  H  -1.34775  -2.12558  -4.88286
  H  -1.82125  -3.28418  -4.15716
  O  -2.16245  -2.60818  -4.74276
