  74
# Step 1, RM=C5H14NO[407] (21 atoms), C5H14NO[410] d=501.624pm (21 atoms), C2H3O2[130] d=513.445pm (7 atoms), C2H3O2[342] d=524.580pm (7 atoms), H2O[2] d=382.986pm (3 atoms), H2O[174] d=395.426pm (3 atoms), H2O[191] d=428.194pm (3 atoms), H2O[147] d=490.864pm (3 atoms), H2O[821] d=583.814pm (3 atoms), H2O[584] d=586.348pm (3 atoms)
  C  -0.95877   0.29125  -0.27077
  C  -1.45637  -1.08485   0.12033
  C   0.82093   0.47045   1.30173
  C   0.54173   2.17975  -0.20407
  C   1.30533  -0.02745  -0.96537
  H  -1.65097   0.92265   0.28633
  H  -1.28737   0.51945  -1.28467
  H  -0.92697  -2.94375   0.52033
  H  -2.37867  -1.43785  -0.34117
  H  -1.70177  -1.11325   1.18193
  H   1.75913   0.92145   1.62493
  H   0.79833  -0.60215   1.49433
  H   1.02703   0.06035  -2.01557
  H   0.06823   0.87355   1.97933
  H   1.46273   2.56695   0.23153
  H   0.47683   2.45605  -1.25647
  H  -0.26547   2.68305   0.32823
  H   2.32073   0.35965  -0.88027
  H   1.32443  -1.10005  -0.77257
  N   0.40993   0.69535  -0.02627
  O  -0.61337  -2.24435  -0.03247
  C   2.79553  -2.88875   2.86433
  C   2.86613  -3.13995   1.35843
  C   5.03203  -2.17975   3.01803
  C   3.73043  -2.36405   4.99173
  C   3.44523  -0.54945   3.57473
  H   2.81323  -3.89375   3.28593
  H   1.80713  -2.51565   3.13233
  H   3.71573  -2.34555  -0.12437
  H   1.90493  -3.52545   1.01853
  H   3.63523  -3.90455   1.24943
  H   2.77093  -2.43705   5.50383
  H   4.07033  -3.39895   5.03033
  H   4.48413  -1.82535   5.56603
  H   5.85633  -1.86335   3.65723
  H   2.52303  -0.29265   4.09593
  H   4.20663   0.04305   4.08203
  H   3.44683  -0.05345   2.60403
  H   5.23423  -3.24475   2.90473
  H   5.19813  -1.59075   2.11603
  N   3.75293  -1.97255   3.60183
  O   3.15353  -1.98675   0.54513
  C   4.13063   2.94415   0.92563
  C   5.02983   2.04005   0.13563
  H   6.05403   2.25235   0.44233
  H   4.75573   1.00855   0.35673
  H   4.86973   2.17445  -0.93417
  O   3.71433   2.51245   2.05363
  O   3.77693   4.02535   0.38423
  C  -1.48877  -4.09105   2.72853
  C  -2.50477  -4.54385   3.80073
  H  -2.25927  -4.00925   4.71833
  H  -2.40107  -5.55765   4.18753
  H  -3.51350  -4.25235   3.50833
  O  -0.96957  -3.03365   2.90333
  O  -1.22747  -4.89375   1.83833
  H  -0.42867  -1.74515   3.32413
  H  -1.09577  -0.85595   3.92733
  O  -0.16487  -0.91055   3.71143
  H  -2.51827   0.96535   3.12813
  H  -3.11362   2.12015   2.79583
  O  -2.23487   1.76005   2.67613
  H  -2.14587   1.27265  -4.03627
  H  -2.96056   0.47225  -3.14727
  O  -2.52907   1.32655  -3.16077
  H  -3.10661   2.33195  -2.13977
  H  -3.84681   3.31035  -2.42657
  O  -3.57791   2.95025  -1.58137
  H  -4.64181   2.58375  -0.10527
  H  -5.68831   1.68795  -0.18767
  O  -5.37391   2.32455   0.45433
  H  -1.07847   0.65355   5.96773
  H   0.02393   0.14325   5.07383
  O  -0.12677   0.65975   5.86553
