  74
# Step 2, RM=C5H14NO[176] (21 atoms), C5H14NO[141] d=622.554pm (21 atoms), C2H3O2[451] d=460.043pm (7 atoms), C2H3O2[152] d=502.093pm (7 atoms), H2O[30] d=388.583pm (3 atoms), H2O[488] d=412.656pm (3 atoms), H2O[1073] d=430.107pm (3 atoms), H2O[177] d=481.350pm (3 atoms), H2O[159] d=482.395pm (3 atoms), H2O[189] d=491.118pm (3 atoms)
  C   0.48438   0.07957  -0.93933
  C  -0.35912   1.32997  -1.20843
  C  -0.80632  -1.31433   0.57267
  C   1.58908  -1.41433   0.59347
  C   0.57318   0.42907   1.51037
  H   1.49468   0.48117  -1.01693
  H   0.23268  -0.55023  -1.79263
  H  -2.06072   2.06977  -0.62443
  H  -0.27922   1.73807  -2.21603
  H  -0.00372   2.12077  -0.54783
  H   2.44888  -0.77433   0.39497
  H   1.49528  -2.26163  -0.08573
  H   1.74748  -1.67293   1.64037
  H  -0.74992  -2.08873   1.33767
  H   1.49968   0.98837   1.38087
  H  -0.27132   1.11807   1.50027
  H   0.57648  -0.07693   2.47577
  H  -0.99402  -1.85683  -0.35383
  H  -1.69032  -0.68343   0.66547
  N   0.44608  -0.55083   0.40587
  O  -1.71952   1.24167  -0.92603
  C  -5.58582   0.69537  -1.37813
  C  -7.01052   1.38467  -1.31643
  C  -4.07772  -1.09913  -1.17553
  C  -5.68992  -1.31373  -2.84853
  C  -6.28802  -1.57113  -0.52363
  H  -5.18432   1.12977  -0.46263
  H  -5.03292   1.15997  -2.19463
  H  -7.47862   1.29667  -3.15493
  H  -7.46642   1.04557  -0.38623
  H  -6.87882   2.46507  -1.37513
  H  -3.79902  -2.12783  -1.40403
  H  -5.61442  -2.39943  -2.90983
  H  -3.78552  -0.99523  -0.13053
  H  -3.31272  -0.56963  -1.74333
  H  -6.21292  -1.07323   0.44317
  H  -7.34382  -1.51373  -0.78823
  H  -5.98382  -2.61193  -0.41353
  H  -6.73512  -1.09113  -3.06283
  H  -5.02102  -0.99633  -3.64853
  N  -5.46732  -0.77583  -1.46343
  O  -7.81642   0.92227  -2.35573
  C  -3.65072   0.95367   2.63187
  C  -3.45702   2.26467   1.89577
  H  -4.22912   2.47357   1.15527
  H  -2.48222   2.29857   1.40927
  H  -3.45072   3.12627   2.56337
  O  -2.97082   0.77877   3.66307
  O  -4.52042   0.10397   2.23027
  C   3.71878   2.99227   1.73297
  C   3.07248   3.45907   0.47077
  H   1.99888   3.56987   0.31897
  H   3.30958   2.66247  -0.23453
  H   3.55378   4.34827   0.06367
  O   4.23218   1.91267   1.62187
  O   3.65708   3.68137   2.76047
  H  -1.11232  -1.73573  -3.30523
  H  -0.64162  -3.07873  -3.03343
  O  -1.28512  -2.45473  -2.69743
  H   0.75108   0.42237  -3.82613
  H   1.95888  -0.10093  -3.49973
  O   1.64008   0.76777  -3.74443
  H   1.78538  -2.47363  -3.50423
  H   2.95098  -2.57253  -2.82863
  O   2.34328  -1.85993  -3.02643
  H   1.62628  -1.33553   4.41027
  H   0.28898  -0.94793   4.43177
  O   0.77498  -1.77263   4.43307
  H  -0.57002   1.39187   5.33847
  H  -1.54702   0.62767   4.49347
  O  -0.61382   0.68027   4.69977
  H   4.23508   0.25527   1.89347
  H   4.02718  -0.67733   2.93667
  O   4.42698  -0.66633   2.06697
