  74
# Step 9, RM=C5H14NO[296] (21 atoms), C5H14NO[111] d=524.473pm (21 atoms), C2H3O2[396] d=501.890pm (7 atoms), C2H3O2[280] d=522.308pm (7 atoms), H2O[943] d=413.418pm (3 atoms), H2O[754] d=420.786pm (3 atoms), H2O[268] d=472.978pm (3 atoms), H2O[387] d=493.089pm (3 atoms), H2O[675] d=520.220pm (3 atoms), H2O[405] d=555.581pm (3 atoms)
  C   0.32785   1.03397  -0.06348
  C   1.02345   0.65317  -1.42938
  C   0.69545  -1.23943   0.88002
  C  -1.51635  -0.64333   0.22212
  C  -0.52355   0.38457   2.17762
  H   1.09445   1.52147   0.53882
  H  -0.41895   1.80407  -0.25668
  H   0.72855  -0.23163  -3.10498
  H   1.96635   0.11467  -1.33498
  H   1.33765   1.60867  -1.84928
  H  -2.20395   0.20197   0.24802
  H  -1.40975  -0.99363  -0.80458
  H  -1.96795  -1.36533   0.90242
  H   0.22925  -1.98363   1.52572
  H  -1.24075   1.20367   2.23182
  H   0.34355   0.63047   2.79072
  H  -1.09285  -0.39483   2.68402
  H   1.60205  -1.02623   1.44652
  H   0.95025  -1.75983  -0.04318
  N  -0.22735  -0.07233   0.79062
  O   0.19905  -0.03633  -2.34698
  C  -4.09955   1.60237  -4.44187
  C  -3.92335   0.05147  -4.41540
  C  -1.70965   1.97887  -4.32921
  C  -2.99035   2.08967  -2.32598
  C  -3.06665   3.81527  -4.05660
  H  -5.10535   1.87517  -4.12252
  H  -4.05855   2.07587  -5.42283
  H  -4.22155  -1.59223  -3.45768
  H  -4.65585  -0.37043  -5.10355
  H  -3.00485  -0.37373  -4.81981
  H  -1.52005   0.90987  -4.23240
  H  -0.90975   2.59327  -3.91592
  H  -3.01965   1.05727  -1.97768
  H  -2.14405   2.53017  -1.79898
  H  -3.91875   2.55037  -1.98848
  H  -1.74975   2.14857  -5.40518
  H  -3.94225   4.20037  -3.53392
  H  -2.15735   4.28897  -3.68650
  H  -3.13645   4.05997  -5.11649
  N  -3.02045   2.34627  -3.75008
  O  -4.08895  -0.68203  -3.24098
  C   0.76905  -2.04713   4.60022
  C   2.19005  -1.89853   4.11302
  H   2.93435  -2.15603   4.86662
  H   2.34965  -2.69143   3.38222
  H   2.25675  -0.89193   3.70022
  O   0.00765  -2.89263   4.12692
  O   0.41315  -1.05793   5.32512
  C   5.14485   0.48967   0.53242
  C   5.27175   1.97717   0.57822
  H   4.56395   2.55307  -0.01788
  H   5.06025   2.35327   1.57922
  H   6.21535   2.30927   0.14532
  O   4.03075   0.06067   0.64932
  O   6.18995  -0.16993   0.47092
  H  -0.70515   4.50967   2.05932
  H  -1.67055   3.77517   1.52132
  O  -0.72155   3.67327   1.59402
  H   3.54895  -1.56503   0.42962
  H   4.30235  -2.51733  -0.08168
  O   3.37745  -2.46733   0.15992
  H  -1.41325  -2.88483   3.42902
  H  -2.69185  -3.59413   3.40402
  O  -2.17865  -2.99283   2.86442
  H  -3.98645   3.86597   1.74652
  H  -3.95905   2.71487   0.98642
  O  -3.31195   3.33387   1.32462
  H  -5.47805   2.03157  -0.19678
  H  -5.45545   0.84607   0.69032
  O  -4.88915   1.55697   0.38992
  H   3.59765  -4.89933   1.39302
  H   2.84985  -3.89033   0.69982
  O   2.69335  -4.73233   1.12742
