  74
# Step 1, RM=C5H14NO[445] (21 atoms), C5H14NO[254] d=703.344pm (21 atoms), C2H3O2[336] d=442.563pm (7 atoms), C2H3O2[21] d=443.234pm (7 atoms), H2O[295] d=513.425pm (3 atoms), H2O[548] d=519.803pm (3 atoms), H2O[448] d=546.556pm (3 atoms), H2O[1114] d=595.853pm (3 atoms), H2O[858] d=654.524pm (3 atoms), H2O[1006] d=741.075pm (3 atoms)
  C  -0.25337  -0.42305   0.94388
  C  -1.68087  -0.21775   0.51948
  C   0.83463   1.24415  -0.44612
  C   2.08173  -0.67025   0.42688
  C   0.46713  -0.96955  -1.30482
  H  -0.03317   0.24095   1.77978
  H  -0.19347  -1.44075   1.32968
  H  -1.78547   1.70435   0.59028
  H  -1.88177  -0.95525  -0.25752
  H  -2.41757  -0.38055   1.30618
  H   1.00183   1.77555   0.49078
  H   1.62913   1.41305  -1.17292
  H   2.24583  -0.17715   1.38498
  H   2.93433  -0.38925  -0.19142
  H   2.00173  -1.75585   0.48188
  H   0.00633   1.65165  -1.02582
  H  -0.44397  -0.60715  -1.78092
  H   0.48493  -2.04885  -1.15342
  H   1.15883  -0.70835  -2.10572
  N   0.76093  -0.17125  -0.07292
  O  -2.05067   1.03365  -0.02032
  C   3.44523  -6.11545   2.72348
  C   4.45713  -6.01745   3.95128
  C   3.90763  -3.83945   1.82118
  C   4.87453  -5.85055   0.80328
  C   2.56853  -5.37455   0.62188
  H   2.46873  -5.87185   3.14198
  H   3.21883  -7.15105   2.46968
  H   4.91293  -5.07265   5.50088
  H   5.39973  -6.52675   3.75098
  H   4.08623  -6.69605   4.71938
  H   4.92683  -5.45425  -0.21082
  H   5.73043  -5.61435   1.43548
  H   4.82513  -3.55835   2.33818
  H   3.96393  -3.14375   0.98398
  H   3.04923  -3.45905   2.37478
  H   4.88103  -6.92885   0.64448
  H   2.30873  -6.43275   0.59308
  H   2.82393  -5.07785  -0.39542
  H   1.67723  -4.80605   0.88728
  N   3.68523  -5.27555   1.54458
  O   4.75633  -4.80105   4.60938
  C  -1.34867  -4.22705   0.45068
  C  -1.05877  -4.36985  -1.01162
  H  -1.28027  -3.50525  -1.63742
  H  -1.57947  -5.26965  -1.33942
  H  -0.02297  -4.65445  -1.19622
  O  -2.45477  -4.48785   0.86938
  O  -0.50527  -3.71195   1.23518
  C  -0.61867   3.43955   2.73908
  C  -0.03547   2.59595   3.88428
  H  -0.33257   2.74755   4.92198
  H  -0.42327   1.59445   3.69828
  H   1.02853   2.40835   3.73978
  O  -0.86407   2.91085   1.60388
  O  -0.65627   4.68195   2.94588
  H   0.76223  -2.97125   3.64148
  H   0.00183  -3.61275   2.70658
  O   0.15203  -3.70875   3.64708
  H  -1.88997   5.29345   0.18908
  H  -2.06517   3.86755   0.51208
  O  -2.51557   4.58065   0.05948
  H   1.84283  -4.83905  -2.96872
  H   2.16273  -3.53305  -2.50462
  O   1.86223  -3.94655  -3.31392
  H  -1.51307  -4.19735   3.45568
  H  -2.47097  -4.37805   2.42918
  O  -2.46047  -4.31395   3.38418
  H  -0.06467   6.84045   1.14208
  H  -0.83417   5.86272   1.87068
  O  -0.90957   6.39506   1.07878
  H   1.64433  -7.45675  -2.82852
  H   2.63313  -7.12335  -1.80082
  O   1.86073  -6.74755  -2.22312
