  74
# Step 1, RM=C5H14NO[475] (21 atoms), C5H14NO[15] d=625.361pm (21 atoms), C2H3O2[71] d=443.644pm (7 atoms), C2H3O2[48] d=459.340pm (7 atoms), H2O[1092] d=435.397pm (3 atoms), H2O[36] d=447.291pm (3 atoms), H2O[463] d=462.587pm (3 atoms), H2O[752] d=472.498pm (3 atoms), H2O[201] d=482.502pm (3 atoms), H2O[141] d=484.769pm (3 atoms)
  C  -0.97220  -0.34755   0.25853
  C  -1.46290   1.09845   0.37953
  C   0.89860  -0.27205  -1.30797
  C   1.29140   0.03255   1.06123
  C   0.73010  -2.05305   0.23363
  H  -1.31360  -0.87455   1.14943
  H  -1.53560  -0.68835  -0.61007
  H  -1.57540   2.53945  -0.87407
  H  -1.25580   1.50945   1.36763
  H  -2.53090   1.00035   0.18493
  H   2.34680  -0.23365   1.00443
  H   0.15420  -2.66565  -0.45997
  H   0.96300   0.80755  -1.44347
  H   0.43140  -2.44485   1.20593
  H   1.23800   1.12065   1.02293
  H   1.82890  -0.65795  -1.72487
  H   1.77780  -2.33215   0.12163
  H   1.00230  -0.26525   2.06903
  H   0.11230  -0.59705  -1.98937
  N   0.49880  -0.62525   0.05223
  O  -0.90430   1.94295  -0.57937
  C  -4.10890  -1.36525  -3.98907
  C  -5.50540  -1.75945  -4.60797
  C  -1.83550  -0.59415  -3.96587
  C  -2.89970  -1.13795  -6.16247
  C  -3.51350   0.79405  -4.91377
  H  -4.33010  -0.89135  -3.03277
  H  -3.73630  -2.30385  -3.57887
  H  -7.00150  -0.93015  -5.29847
  H  -6.23350  -2.09425  -3.86907
  H  -5.32710  -2.60345  -5.27417
  H  -3.77950  -1.19235  -6.80367
  H  -3.77790   1.36705  -4.02507
  H  -2.17500  -0.34795  -2.95977
  H  -1.32520  -1.54855  -3.83597
  H  -4.37040   0.96725  -5.56487
  H  -2.20280  -0.46355  -6.66017
  H  -2.40370  -2.10765  -6.20477
  H  -1.04090   0.07755  -4.29077
  H  -2.77820   1.45205  -5.37707
  N  -3.10730  -0.60185  -4.75397
  O  -6.08830  -0.68835  -5.32467
  C  -2.68100  -3.33475  -1.09127
  C  -2.90500  -4.40245  -0.07477
  H  -2.00760  -4.51025   0.53443
  H  -3.05960  -5.35915  -0.57367
  H  -3.79270  -4.23465   0.53503
  O  -3.35910  -2.30825  -0.96537
  O  -1.77460  -3.49095  -1.95617
  C  -0.35710   1.16925   4.41573
  C   0.59290   2.20815   3.79813
  H   0.71530   3.16725   4.30153
  H   0.17760   2.46315   2.82313
  H   1.56490   1.73575   3.65633
  O  -0.85050   1.50075   5.49273
  O  -0.39550  -0.02165   3.98553
  H   0.76010  -4.14455  -2.87707
  H  -0.07990  -3.31785  -2.37947
  O   0.75250  -3.18835  -2.83397
  H   4.18200  -1.73845  -0.80137
  H   4.27920  -0.31805  -0.38987
  O   4.32360  -1.20075  -0.02227
  H  -5.30850  -0.31525  -0.26857
  H  -4.10530  -1.04305  -0.12257
  O  -4.58530  -0.36745   0.35643
  H  -2.92710  -0.83105   4.58973
  H  -1.97540  -0.30665   3.71873
  O  -2.89960  -0.55185   3.67453
  H   3.36790  -0.93765  -2.94927
  H   3.56530   0.32695  -2.53297
  O   3.50750  -0.09865  -3.38837
  H   2.55430  -2.90365  -2.57247
  H   3.90570  -3.22815  -2.69897
  O   3.38960  -2.53995  -2.27907
