  74
# Step 6, RM=C5H14NO[269] (21 atoms), C5H14NO[134] d=621.865pm (21 atoms), C2H3O2[103] d=494.243pm (7 atoms), C2H3O2[209] d=508.494pm (7 atoms), H2O[300] d=375.871pm (3 atoms), H2O[697] d=460.556pm (3 atoms), H2O[810] d=462.397pm (3 atoms), H2O[43] d=482.629pm (3 atoms), H2O[1062] d=499.669pm (3 atoms), H2O[288] d=517.785pm (3 atoms)
  C  -0.43741   0.02812   0.83051
  C  -1.71101   0.73270   0.20391
  C   1.63249  -1.20251   0.86401
  C   0.04299  -1.64054  -0.91539
  C   1.35269   0.41443  -0.74819
  H  -0.74241  -0.88708   1.33791
  H  -0.02311   0.69735   1.58461
  H  -1.34891   2.58216   0.56271
  H  -2.15801   0.14482  -0.59779
  H  -2.52501   0.94966   0.89561
  H   1.30459  -2.10470   1.38041
  H  -0.28821  -2.49046  -0.31869
  H   2.24929   0.08121  -1.27089
  H   2.49089  -1.62323   0.34041
  H   0.85369  -1.95708  -1.57159
  H  -0.73931  -1.28357  -1.58519
  H   1.93049  -0.52542   1.66451
  H   0.82519   0.96138  -1.52969
  H   1.75759   1.18142  -0.08799
  N   0.62219  -0.58955  -0.02509
  O  -1.43111   2.03736  -0.20499
  C  -2.48291  -0.42834  -5.92069
  C  -1.35741  -1.53254  -5.73279
  C  -4.31701  -2.04934  -5.94539
  C  -3.89851  -0.85844  -3.96459
  C  -4.79131   0.27596  -5.84579
  H  -2.62611  -0.40014  -7.00089
  H  -2.08431   0.52466  -5.57279
  H  -0.20551  -1.91194  -4.29429
  H  -1.69881  -2.43974  -6.23149
  H  -0.41151  -1.26384  -6.20309
  H  -5.39401  -2.21544  -5.91879
  H  -4.85761  -0.72034  -3.46549
  H  -3.98861  -2.10704  -6.98319
  H  -3.75751  -2.88494  -5.52499
  H  -5.74531   0.09156  -5.35179
  H  -4.81041   0.32966  -6.93429
  H  -4.59901   1.29076  -5.49749
  H  -3.58201  -1.87184  -3.71779
  H  -3.28401  -0.10844  -3.46659
  N  -3.83781  -0.74814  -5.40159
  O  -1.13651  -1.77904  -4.38739
  C  -0.35601  -4.52904   2.02501
  C   0.18539  -4.77974   0.68751
  H   0.61979  -5.77874   0.72271
  H   0.97989  -4.06094   0.48691
  H  -0.58971  -4.78524  -0.07889
  O  -0.66401  -3.31644   2.25891
  O  -0.61281  -5.46094   2.87451
  C  -4.48361  -2.22247  -0.92279
  C  -3.49451  -3.30536  -1.31899
  H  -3.19491  -3.80878  -0.39989
  H  -2.66301  -2.85320  -1.85959
  H  -3.84951  -4.11516  -1.95649
  O  -4.10831  -1.28128  -0.24739
  O  -5.64971  -2.38535  -1.32029
  H   1.13009   1.75866   3.07691
  H   0.38039   2.83526   2.38191
  O   1.27409   2.51796   2.51201
  H   1.82709  -0.51804  -4.42699
  H   2.27109  -1.56174  -3.65249
  O   1.47489  -1.36224  -4.14499
  H  -2.13821   2.60516  -1.74079
  H  -1.71141   3.62376  -2.79169
  O  -2.44661   3.07716  -2.51429
  H  -4.49981   0.36018  -0.58269
  H  -4.81061   1.54356   0.03801
  O  -4.59051   1.27376  -0.85359
  H  -0.83111  -2.40754   3.68531
  H  -0.03611  -1.42844   4.46301
  O  -0.76891  -2.03564   4.56511
  H   2.56259   3.11576  -2.79289
  H   3.89639   2.56346  -2.85509
  O   3.38999   3.16986  -2.31459
