  74
# Step 2, RM=C5H14NO[287] (21 atoms), C5H14NO[479] d=563.535pm (21 atoms), C2H3O2[189] d=385.708pm (7 atoms), C2H3O2[379] d=521.470pm (7 atoms), H2O[144] d=392.603pm (3 atoms), H2O[340] d=427.467pm (3 atoms), H2O[453] d=434.703pm (3 atoms), H2O[606] d=448.953pm (3 atoms), H2O[102] d=455.167pm (3 atoms), H2O[458] d=496.027pm (3 atoms)
  C  -0.71899  -0.20606  -0.76525
  C   0.02869   0.74414  -1.66755
  C   1.23094  -1.14646   0.44035
  C  -0.99355  -1.56856   1.09595
  C  -0.01069   0.55224   1.48935
  H  -1.67295   0.25054  -0.50165
  H  -0.95714  -1.10756  -1.32975
  H  -0.12305   2.61524  -1.17315
  H   0.87435   0.23854  -2.13375
  H  -0.59230   1.07284  -2.50085
  H  -1.21029  -2.36666   0.38585
  H   1.95369  -0.37156   0.18505
  H   1.56975  -1.37736   1.45025
  H   1.23113  -2.02676  -0.20245
  H  -0.46412  -1.97666   1.95695
  H  -1.98102  -1.20846   1.38465
  H   0.10509   0.25264   2.53095
  H   0.82512   1.25014   1.44015
  H  -0.93741   1.12194   1.55825
  N  -0.10034  -0.55136   0.50915
  O   0.52276   1.93124  -1.08295
  C   0.74491   5.38147   0.89575
  C   1.79441   6.07752  -0.04475
  C  -0.09159   4.26629   2.98365
  C   2.32521   4.24858   2.44035
  C   1.17631   6.25997   3.22595
  H  -0.20889   5.87514   0.70965
  H   0.52961   4.41382   0.44255
  H   2.91611   5.40121  -1.43455
  H   2.44221   6.80813   0.43965
  H   1.32881   6.49494  -0.93755
  H   2.33871   3.56281   1.59315
  H   2.02701   6.80411   2.81565
  H   0.00981   4.15667   4.06335
  H  -0.32489   3.27863   2.58595
  H   0.30011   6.90745   3.19425
  H   2.46181   3.67796   3.35895
  H  -1.00149   4.83473   2.79095
  H   1.40091   6.14854   4.28675
  H   3.15111   4.94329   2.28745
  N   1.08621   5.04335   2.38815
  O   2.75161   5.23235  -0.51945
  C  -2.58849   2.78014  -0.67175
  C  -3.27489   2.22644  -1.92715
  H  -3.30069   3.01824  -2.67585
  H  -4.31389   2.15134  -1.60615
  H  -2.90599   1.26054  -2.27215
  O  -1.60419   3.53064  -0.75815
  O  -3.07099   2.32624   0.41235
  C   2.65582  -2.32676  -3.76215
  C   1.84971  -2.25546  -5.08755
  H   0.89739  -1.74136  -4.95755
  H   1.68035  -3.28396  -5.40625
  H   2.45073  -1.90256  -5.92565
  O   3.83430  -2.73146  -3.87985
  O   2.11611  -1.93946  -2.73945
  H   3.29236   1.43724   2.98365
  H   3.55650   0.47944   2.01335
  O   2.81368   0.72084   2.56675
  H  -3.78689   1.02014   0.67345
  H  -3.92959   0.05804   1.76075
  O  -4.21359   0.18284   0.85525
  H  -4.20926  -0.85186  -0.40615
  H  -3.89801  -2.41666  -0.54715
  O  -3.93202  -1.56456  -0.98195
  H   4.47910  -2.09656  -1.50255
  H   3.34481  -1.33076  -1.69015
  O   4.14290  -1.26616  -1.16555
  H   1.99741  -0.25326   3.59525
  H   1.25491  -0.15886   4.79095
  O   1.56021  -0.84976   4.20295
  H   4.65420  -0.42306   0.17715
  H   5.78230   0.02844   0.99715
  O   4.83850   0.16324   0.91095
