  74
# Step 7, RM=C5H14NO[54] (21 atoms), C5H14NO[49] d=566.353pm (21 atoms), C2H3O2[278] d=397.340pm (7 atoms), C2H3O2[404] d=505.399pm (7 atoms), H2O[766] d=397.726pm (3 atoms), H2O[1063] d=436.579pm (3 atoms), H2O[1075] d=499.420pm (3 atoms), H2O[267] d=512.937pm (3 atoms), H2O[819] d=562.002pm (3 atoms), H2O[747] d=691.069pm (3 atoms)
  C  -0.79374  -0.72642   0.21870
  C  -1.71634   0.59328   0.40620
  C   1.04496  -1.73152  -0.85020
  C   1.45386  -0.01682   0.75030
  C   0.61096   0.49018  -1.44130
  H  -0.78684  -1.45182   1.03230
  H  -1.37114  -1.27502  -0.52540
  H  -0.97774   1.36678   1.97270
  H  -2.10214   0.84658  -0.58130
  H  -2.62844   0.31628   0.93470
  H   2.48846   0.06718   0.41760
  H   2.04496  -1.73362  -1.28390
  H   0.35346  -2.04052  -1.63400
  H   1.16696  -2.48682  -0.07380
  H   0.23866   1.49328  -1.23360
  H   1.63386   0.58058  -1.80670
  H   0.09186   0.15768  -2.34030
  H   1.54216  -0.74912   1.55280
  H   1.19866   0.93118   1.22390
  N   0.57366  -0.46692  -0.30650
  O  -1.13464   1.70378   1.10390
  C  -3.71094   2.79728  -2.86810
  C  -4.22124   2.32108  -4.23730
  C  -1.47244   3.79108  -3.71530
  C  -3.44924   5.07698  -3.41540
  C  -2.22674   4.18668  -1.49190
  H  -3.24254   1.91738  -2.42720
  H  -4.54254   2.92748  -2.17550
  H  -3.34834   2.04508  -5.90840
  H  -4.72114   3.12758  -4.77370
  H  -4.96304   1.56358  -3.98460
  H  -0.72564   4.58378  -3.67110
  H  -0.96644   2.86468  -3.44340
  H  -2.95374   6.03598  -3.26420
  H  -1.66634   3.68278  -4.78250
  H  -1.69574   5.13788  -1.53010
  H  -1.48934   3.44678  -1.18040
  H  -2.98534   4.22058  -0.70990
  H  -3.62054   4.97268  -4.48670
  H  -4.41784   5.12218  -2.91750
  N  -2.69304   3.90348  -2.86570
  O  -3.22914   1.75128  -5.01820
  C   0.20486   0.49348   3.92750
  C   0.57746  -0.90212   4.42450
  H   1.50646  -0.97822   4.98970
  H  -0.08674  -1.11862   5.26120
  H   0.53056  -1.66372   3.64620
  O  -0.95354   0.68618   3.57350
  O   1.07536   1.40878   3.83850
  C   1.37016   4.64808  -1.60650
  C   2.05486   3.51928  -0.89040
  H   2.32496   2.85798  -1.71370
  H   1.35986   2.97928  -0.24740
  H   3.02526   3.69398  -0.42580
  O   0.63726   5.32828  -0.86780
  O   1.58366   4.91368  -2.81430
  H  -2.66694   0.57188  -3.89910
  H  -2.56544  -0.70322  -3.59440
  O  -2.14174   0.08808  -3.26180
  H  -3.49204  -3.89922   0.60990
  H  -3.02684  -2.75562   1.22950
  O  -2.78614  -3.27062   0.45940
  H  -1.24124  -4.31412   0.55140
  H  -0.98104  -5.41042   1.32800
  O  -0.50724  -4.91942   0.65670
  H   0.70356  -4.85462  -0.74640
  H   1.78776  -5.31132  -1.32530
  O   1.08956  -4.72302  -1.61240
  H  -4.79874  -1.58322   3.20450
  H  -5.16954  -2.62442   2.32010
  O  -4.76994  -1.75652   2.26360
  H   3.93406  -6.52462  -0.89640
  H   3.20606  -6.08332   0.36330
  O   3.14326  -6.07952  -0.59180
