  74
# Step 5, RM=C5H14NO[433] (21 atoms), C5H14NO[380] d=568.454pm (21 atoms), C2H3O2[234] d=463.261pm (7 atoms), C2H3O2[490] d=468.848pm (7 atoms), H2O[14] d=429.277pm (3 atoms), H2O[627] d=431.317pm (3 atoms), H2O[615] d=450.759pm (3 atoms), H2O[370] d=460.368pm (3 atoms), H2O[607] d=518.242pm (3 atoms), H2O[316] d=519.411pm (3 atoms)
  C   0.27789   0.36547   0.89370
  C   0.07759   1.85757   0.47080
  C   0.35169  -1.98783   0.76880
  C  -1.65211  -0.87183  -0.05960
  C   0.30129  -0.85693  -1.31760
  H   1.35019   0.30147   1.07840
  H  -0.15631   0.37587   1.89350
  H   0.81059   3.02357  -0.78420
  H   0.49959   2.54877   1.20030
  H  -0.97781   2.09127   0.33100
  H   1.43309  -2.10453   0.69830
  H  -2.05841  -1.26023   0.87430
  H  -0.06511  -1.79423  -1.73630
  H  -2.18521  -0.02873  -0.49910
  H  -0.19381  -2.82553   0.33430
  H   0.00679  -2.03433   1.80180
  H  -1.92651  -1.75533  -0.63600
  H   1.38139  -0.72733  -1.38510
  H  -0.13311   0.04687  -1.74490
  N  -0.14931  -0.80263   0.03920
  O   0.75339   2.08487  -0.69180
  C   3.14339   4.26347   2.08361
  C   2.79589   2.93727   2.83502
  C   4.38159   5.42497   0.40690
  C   5.57109   3.77577   1.58447
  C   3.91009   3.26957  -0.07990
  H   2.27889   4.76497   1.64863
  H   3.45859   5.05977   2.75789
  H   3.72039   1.37597   3.32647
  H   2.51249   2.22237   2.06256
  H   2.04529   3.05687   3.61631
  H   6.29029   3.82837   0.76718
  H   3.86109   2.19197   0.07656
  H   3.48709   5.65937  -0.17013
  H   4.40759   6.22477   1.14699
  H   2.94119   3.53347  -0.50374
  H   5.81829   4.34657   2.47958
  H   5.29889   5.55537  -0.16720
  H   4.52089   3.32467  -0.98100
  H   5.66659   2.74597   1.92869
  N   4.23649   4.17717   1.04504
  O   3.86229   2.30237   3.44808
  C   2.42039  -0.80393   3.82090
  C   1.73799  -0.28393   5.01490
  H   2.39219  -0.42503   5.87520
  H   1.45539   0.76887   5.01710
  H   0.74759  -0.72653   5.12220
  O   2.11329  -2.00043   3.49940
  O   3.27139  -0.11523   3.21730
  C  -2.45441   0.31917   3.91780
  C  -3.65001  -0.60213   3.77970
  H  -4.31861  -0.43333   4.62390
  H  -4.30861  -0.43333   2.92770
  H  -3.35831  -1.65233   3.77230
  O  -2.37371   1.23597   3.03560
  O  -1.70181   0.36267   4.93820
  H   0.93389   0.63567  -3.56100
  H   1.77009   0.52157  -4.73460
  O   1.85989   0.69137  -3.79690
  H  -1.14581  -0.36153  -4.15080
  H  -0.46181   0.51827  -5.09110
  O  -0.73591   0.50317  -4.17410
  H  -1.61371  -2.41263  -3.90660
  H  -2.69821  -1.96773  -3.05420
  O  -2.05701  -1.60023  -3.66250
  H  -2.07161   3.97867   2.44070
  H  -1.66401   2.70807   2.93520
  O  -1.25601   3.53097   2.66580
  H  -0.72661  -4.42763  -1.97130
  H  -1.69151  -4.63323  -0.80600
  O  -0.90881  -4.99463  -1.22200
  H  -3.05141  -4.54623   1.15376
  H  -3.67111  -3.63793   0.12905
  O  -2.94711  -4.25263   0.24867
